data/open_dss/uhs18_1247/uhs18_1247--udt11616/Loads_scenario_30.dss
New Load.load_p1ulv644 conn=wye bus1=p1ulv644.1.2 kV=0.2080002494301389 Vminpu=0.8 Vmaxpu=1.2 model=1 kW=3.33003 kvar=0.6796683639857601 Phases=2

New Load.load_p1ulv645 conn=wye bus1=p1ulv645.1.2 kV=0.2080002494301389 Vminpu=0.8 Vmaxpu=1.2 model=1 kW=6.34006 kvar=1.2907177031558559 Phases=2

New Load.load_p1ulv646 conn=wye bus1=p1ulv646.1.2 kV=0.2080002494301389 Vminpu=0.8 Vmaxpu=1.2 model=1 kW=1.91002 kvar=0.3898403823929759 Phases=2

New Load.load_p1ulv647 conn=wye bus1=p1ulv647.1.2 kV=0.2080002494301389 Vminpu=0.8 Vmaxpu=1.2 model=1 kW=2.07002 kvar=0.4203354886856016 Phases=2

New Load.load_p1ulv648 conn=wye bus1=p1ulv648.1.2 kV=0.2080002494301389 Vminpu=0.8 Vmaxpu=1.2 model=1 kW=3.68004 kvar=0.7491873541136322 Phases=2

New Load.load_p1ulv649 conn=wye bus1=p1ulv649.1.2 kV=0.2080002494301389 Vminpu=0.8 Vmaxpu=1.2 model=1 kW=3.29003 kvar=0.6697886084538411 Phases=2

New Load.load_p1ulv650 conn=wye bus1=p1ulv650.1.2 kV=0.2080002494301389 Vminpu=0.8 Vmaxpu=1.2 model=1 kW=2.81003 kvar=0.570600928141371 Phases=2

New Load.load_p1ulv651 conn=wye bus1=p1ulv650.1.2 kV=0.2080002494301389 Vminpu=0.8 Vmaxpu=1.2 model=1 kW=2.15002 kvar=0.43994369930755917 Phases=2

New Load.load_p1ulv652 conn=wye bus1=p1ulv652.1.2 kV=0.2080002494301389 Vminpu=0.8 Vmaxpu=1.2 model=1 kW=3.39003 kvar=0.6901467391837689 Phases=2

New Load.load_p1ulv655 conn=wye bus1=p1ulv655.1.2 kV=0.2080002494301389 Vminpu=0.8 Vmaxpu=1.2 model=1 kW=10.28 kvar=0.5703014980185626 Phases=2

New Load.load_p1ulv662 conn=wye bus1=p1ulv662.1.2 kV=0.2080002494301389 Vminpu=0.8 Vmaxpu=1.2 model=1 kW=10.77 kvar=0.660578085568534 Phases=2

New Load.load_p1ulv663 conn=wye bus1=p1ulv662.1.2 kV=0.2080002494301389 Vminpu=0.8 Vmaxpu=1.2 model=1 kW=10.4 kvar=0.5903918986071232 Phases=2

New Load.load_p1ulv664 conn=wye bus1=p1ulv664.1.2 kV=0.2080002494301389 Vminpu=0.8 Vmaxpu=1.2 model=1 kW=2.92003 kvar=0.5898746577868357 Phases=2

New Load.load_p1ulv665 conn=wye bus1=p1ulv665.1.2 kV=0.2080002494301389 Vminpu=0.8 Vmaxpu=1.2 model=1 kW=10.86 kvar=0.6805230909267135 Phases=2

New Load.load_p1ulv666 conn=wye bus1=p1ulv666.1.2 kV=0.2080002494301389 Vminpu=0.8 Vmaxpu=1.2 model=1 kW=17.46 kvar=0.49952836633286324 Phases=2

New Load.load_p1ulv667 conn=wye bus1=p1ulv667.1.2 kV=0.2080002494301389 Vminpu=0.8 Vmaxpu=1.2 model=1 kW=3.20003 kvar=0.6497938057886328 Phases=2

New Load.load_p1ulv676 conn=wye bus1=p1ulv676.1.2.3 kV=0.48 Vminpu=0.8 Vmaxpu=1.2 model=1 kW=57.63060000000001 kvar=11.702392447534049 Phases=3

New Load.load_p1ulv677 conn=wye bus1=p1ulv677.1.2.3 kV=0.48 Vminpu=0.8 Vmaxpu=1.2 model=1 kW=45.740500000000004 kvar=9.288004666729671 Phases=3

New Load.load_p1ulv678 conn=wye bus1=p1ulv678.1.2.3 kV=0.48 Vminpu=0.8 Vmaxpu=1.2 model=1 kW=33.80030000000001 kvar=6.863443647027535 Phases=3

New Load.load_p1ulv679 conn=wye bus1=p1ulv679.1.2.3 kV=0.48 Vminpu=0.8 Vmaxpu=1.2 model=1 kW=55.080600000000004 kvar=11.184592862917338 Phases=3

New Load.load_p1ulv680 conn=wye bus1=p1ulv680.1.2.3 kV=0.48 Vminpu=0.8 Vmaxpu=1.2 model=1 kW=46.1205 kvar=9.365166957770594 Phases=3

New Load.load_p1ulv681 conn=wye bus1=p1ulv681.1.2.3 kV=0.48 Vminpu=0.8 Vmaxpu=1.2 model=1 kW=47.3005 kvar=9.604776177318719 Phases=3

New Load.load_p1ulv2360 conn=wye bus1=p1ulv2360.1.2 kV=0.2080002494301389 Vminpu=0.8 Vmaxpu=1.2 model=1 kW=2.86003 kvar=0.5807538611730713 Phases=2

New Load.load_p1ulv2361 conn=wye bus1=p1ulv2361.1.2 kV=0.2080002494301389 Vminpu=0.8 Vmaxpu=1.2 model=1 kW=2.38002 kvar=0.47953488966710467 Phases=2

New Load.load_p1ulv2362 conn=wye bus1=p1ulv2362.1.2 kV=0.2080002494301389 Vminpu=0.8 Vmaxpu=1.2 model=1 kW=2.73003 kvar=0.5600443875194212 Phases=2

New Load.load_p1ulv2363 conn=wye bus1=p1ulv2363.1.2 kV=0.2080002494301389 Vminpu=0.8 Vmaxpu=1.2 model=1 kW=2.74003 kvar=0.5606733585797765 Phases=2

New Load.load_p1ulv2364 conn=wye bus1=p1ulv2364.1.2 kV=0.2080002494301389 Vminpu=0.8 Vmaxpu=1.2 model=1 kW=2.86003 kvar=0.5807538611730713 Phases=2

New Load.load_p1ulv2365 conn=wye bus1=p1ulv2365.1.2 kV=0.2080002494301389 Vminpu=0.8 Vmaxpu=1.2 model=1 kW=2.86003 kvar=0.5807538611730713 Phases=2

New Load.load_p1ulv2366 conn=wye bus1=p1ulv2365.1.2 kV=0.2080002494301389 Vminpu=0.8 Vmaxpu=1.2 model=1 kW=2.8000300000000005 kvar=0.5700337678771953 Phases=2

New Load.load_p1ulv2367 conn=wye bus1=p1ulv2367.1.2 kV=0.2080002494301389 Vminpu=0.8 Vmaxpu=1.2 model=1 kW=3.62004 kvar=0.7407437090079797 Phases=2

New Load.load_p1ulv2368 conn=wye bus1=p1ulv2368.1.2 kV=0.2080002494301389 Vminpu=0.8 Vmaxpu=1.2 model=1 kW=2.81003 kvar=0.570600928141371 Phases=2

New Load.load_p1ulv2369 conn=wye bus1=p1ulv2369.1.2 kV=0.2080002494301389 Vminpu=0.8 Vmaxpu=1.2 model=1 kW=2.09002 kvar=0.42000226641916955 Phases=2

New Load.load_p1ulv2370 conn=wye bus1=p1ulv2370.1.2 kV=0.2080002494301389 Vminpu=0.8 Vmaxpu=1.2 model=1 kW=2.32002 kvar=0.46988484668642644 Phases=2

New Load.load_p1ulv2371 conn=wye bus1=p1ulv2370.1.2 kV=0.2080002494301389 Vminpu=0.8 Vmaxpu=1.2 model=1 kW=2.79003 kvar=0.569452865461029 Phases=2

New Load.load_p1ulv2372 conn=wye bus1=p1ulv2372.1.2 kV=0.2080002494301389 Vminpu=0.8 Vmaxpu=1.2 model=1 kW=3.24003 kvar=0.6596095430888772 Phases=2

New Load.load_p1ulv2373 conn=wye bus1=p1ulv2373.1.2 kV=0.2080002494301389 Vminpu=0.8 Vmaxpu=1.2 model=1 kW=2.89003 kvar=0.5898631429656088 Phases=2

New Load.load_p1ulv2374 conn=wye bus1=p1ulv2374.1.2 kV=0.2080002494301389 Vminpu=0.8 Vmaxpu=1.2 model=1 kW=3.21003 kvar=0.6501428670480555 Phases=2

New Load.load_p1ulv2375 conn=wye bus1=p1ulv2375.1.2 kV=0.2080002494301389 Vminpu=0.8 Vmaxpu=1.2 model=1 kW=2.8000300000000005 kvar=0.5700337678771953 Phases=2

New Load.load_p1ulv2376 conn=wye bus1=p1ulv2376.1.2 kV=0.2080002494301389 Vminpu=0.8 Vmaxpu=1.2 model=1 kW=3.13003 kvar=0.6404763570309296 Phases=2

New Load.load_p1ulv2377 conn=wye bus1=p1ulv2377.1.2 kV=0.2080002494301389 Vminpu=0.8 Vmaxpu=1.2 model=1 kW=3.0700300000000005 kvar=0.620176126836135 Phases=2

New Load.load_p1ulv2378 conn=wye bus1=p1ulv2378.1.2 kV=0.2080002494301389 Vminpu=0.8 Vmaxpu=1.2 model=1 kW=2.70003 kvar=0.5496756371472675 Phases=2

New Load.load_p1ulv2379 conn=wye bus1=p1ulv2379.1.2 kV=0.2080002494301389 Vminpu=0.8 Vmaxpu=1.2 model=1 kW=2.15002 kvar=0.43994369930755917 Phases=2

New Load.load_p1ulv2380 conn=wye bus1=p1ulv2380.1.2 kV=0.2080002494301389 Vminpu=0.8 Vmaxpu=1.2 model=1 kW=2.99003 kvar=0.6102734204701886 Phases=2

New Load.load_p1ulv2381 conn=wye bus1=p1ulv2381.1.2 kV=0.2080002494301389 Vminpu=0.8 Vmaxpu=1.2 model=1 kW=3.20003 kvar=0.6497938057886328 Phases=2

New Load.load_p1ulv2382 conn=wye bus1=p1ulv2382.1.2 kV=0.2080002494301389 Vminpu=0.8 Vmaxpu=1.2 model=1 kW=3.41003 kvar=0.6906498322195993 Phases=2

New Load.load_p1ulv2383 conn=wye bus1=p1ulv2383.1.2 kV=0.2080002494301389 Vminpu=0.8 Vmaxpu=1.2 model=1 kW=2.09002 kvar=0.42000226641916955 Phases=2

New Load.load_p1ulv2384 conn=wye bus1=p1ulv2384.1.2 kV=0.2080002494301389 Vminpu=0.8 Vmaxpu=1.2 model=1 kW=2.79003 kvar=0.569452865461029 Phases=2

New Load.load_p1ulv2385 conn=wye bus1=p1ulv2385.1.2 kV=0.2080002494301389 Vminpu=0.8 Vmaxpu=1.2 model=1 kW=2.59003 kvar=0.5299798976370255 Phases=2

New Load.load_p1ulv2386 conn=wye bus1=p1ulv2386.1.2 kV=0.2080002494301389 Vminpu=0.8 Vmaxpu=1.2 model=1 kW=2.93003 kvar=0.5903528595437461 Phases=2

New Load.load_p1ulv2387 conn=wye bus1=p1ulv2387.1.2 kV=0.2080002494301389 Vminpu=0.8 Vmaxpu=1.2 model=1 kW=2.7600300000000004 kvar=0.5604479951096709 Phases=2

New Load.load_p1ulv2388 conn=wye bus1=p1ulv2388.1.2 kV=0.2080002494301389 Vminpu=0.8 Vmaxpu=1.2 model=1 kW=2.93003 kvar=0.5995517424405946 Phases=2

New Load.load_p1ulv2389 conn=wye bus1=p1ulv2389.1.2 kV=0.2080002494301389 Vminpu=0.8 Vmaxpu=1.2 model=1 kW=2.74003 kvar=0.5606733585797765 Phases=2

New Load.load_p1ulv2390 conn=wye bus1=p1ulv2390.1.2 kV=0.2080002494301389 Vminpu=0.8 Vmaxpu=1.2 model=1 kW=2.48002 kvar=0.499683245129122 Phases=2

New Load.load_p1ulv2391 conn=wye bus1=p1ulv2390.1.2 kV=0.2080002494301389 Vminpu=0.8 Vmaxpu=1.2 model=1 kW=2.87003 kvar=0.5797741681037358 Phases=2

New Load.load_p1ulv2392 conn=wye bus1=p1ulv2392.1.2 kV=0.2080002494301389 Vminpu=0.8 Vmaxpu=1.2 model=1 kW=3.04003 kvar=0.6204785592224786 Phases=2

New Load.load_p1ulv2393 conn=wye bus1=p1ulv2393.1.2 kV=0.2080002494301389 Vminpu=0.8 Vmaxpu=1.2 model=1 kW=3.10003 kvar=0.6294879397252322 Phases=2

New Load.load_p1ulv2394 conn=wye bus1=p1ulv2394.1.2 kV=0.2080002494301389 Vminpu=0.8 Vmaxpu=1.2 model=1 kW=2.88003 kvar=0.5893205887930111 Phases=2

New Load.load_p1ulv2395 conn=wye bus1=p1ulv2395.1.2 kV=0.2080002494301389 Vminpu=0.8 Vmaxpu=1.2 model=1 kW=2.84003 kvar=0.5796580042133189 Phases=2

New Load.load_p1ulv2396 conn=wye bus1=p1ulv2396.1.2 kV=0.2080002494301389 Vminpu=0.8 Vmaxpu=1.2 model=1 kW=3.3200300000000005 kvar=0.6706785752516337 Phases=2

New Load.load_p1ulv2397 conn=wye bus1=p1ulv2397.1.2 kV=0.2080002494301389 Vminpu=0.8 Vmaxpu=1.2 model=1 kW=2.58003 kvar=0.5198336154266855 Phases=2

New Load.load_p1ulv2398 conn=wye bus1=p1ulv2398.1.2 kV=0.2080002494301389 Vminpu=0.8 Vmaxpu=1.2 model=1 kW=1.43001 kvar=0.2903759152932325 Phases=2

New Load.load_p1ulv2399 conn=wye bus1=p1ulv2399.1.2 kV=0.2080002494301389 Vminpu=0.8 Vmaxpu=1.2 model=1 kW=1.88002 kvar=0.37978245228042407 Phases=2

New Load.load_p1ulv2400 conn=wye bus1=p1ulv2400.1.2 kV=0.2080002494301389 Vminpu=0.8 Vmaxpu=1.2 model=1 kW=1.66002 kvar=0.33967839356123863 Phases=2

New Load.load_p1ulv2401 conn=wye bus1=p1ulv2401.1.2 kV=0.2080002494301389 Vminpu=0.8 Vmaxpu=1.2 model=1 kW=3.29003 kvar=0.6697886084538411 Phases=2

New Load.load_p1ulv2402 conn=wye bus1=p1ulv2402.1.2 kV=0.2080002494301389 Vminpu=0.8 Vmaxpu=1.2 model=1 kW=1.67002 kvar=0.339984854815939 Phases=2

New Load.load_p1ulv2403 conn=wye bus1=p1ulv2403.1.2 kV=0.2080002494301389 Vminpu=0.8 Vmaxpu=1.2 model=1 kW=2.67003 kvar=0.5393722093713369 Phases=2

New Load.load_p1ulv2404 conn=wye bus1=p1ulv2404.1.2 kV=0.2080002494301389 Vminpu=0.8 Vmaxpu=1.2 model=1 kW=2.97003 kvar=0.5999751474699353 Phases=2

New Load.load_p1ulv2405 conn=wye bus1=p1ulv2405.1.2 kV=0.2080002494301389 Vminpu=0.8 Vmaxpu=1.2 model=1 kW=3.45003 kvar=0.7005584709471337 Phases=2

New Load.load_p1ulv2406 conn=wye bus1=p1ulv2406.1.2 kV=0.2080002494301389 Vminpu=0.8 Vmaxpu=1.2 model=1 kW=3.25003 kvar=0.659946738820333 Phases=2

New Load.load_p1ulv2407 conn=wye bus1=p1ulv2407.1.2 kV=0.2080002494301389 Vminpu=0.8 Vmaxpu=1.2 model=1 kW=3.09003 kvar=0.6306836979747686 Phases=2

New Load.load_p1ulv2408 conn=wye bus1=p1ulv2408.1.2 kV=0.2080002494301389 Vminpu=0.8 Vmaxpu=1.2 model=1 kW=3.3000300000000005 kvar=0.6700996718520332 Phases=2

New Load.load_p1ulv2409 conn=wye bus1=p1ulv2409.1.2 kV=0.2080002494301389 Vminpu=0.8 Vmaxpu=1.2 model=1 kW=3.0100300000000004 kvar=0.6096359018765115 Phases=2

New Load.load_p1ulv2410 conn=wye bus1=p1ulv2410.1.2 kV=0.2080002494301389 Vminpu=0.8 Vmaxpu=1.2 model=1 kW=3.15003 kvar=0.6396408727569326 Phases=2

New Load.load_p1ulv2411 conn=wye bus1=p1ulv2411.1.2 kV=0.2080002494301389 Vminpu=0.8 Vmaxpu=1.2 model=1 kW=3.22003 kvar=0.6504775958854341 Phases=2

New Load.load_p1ulv2412 conn=wye bus1=p1ulv2412.1.2 kV=0.2080002494301389 Vminpu=0.8 Vmaxpu=1.2 model=1 kW=3.24003 kvar=0.6596095430888772 Phases=2

New Load.load_p1ulv2413 conn=wye bus1=p1ulv2413.1.2 kV=0.2080002494301389 Vminpu=0.8 Vmaxpu=1.2 model=1 kW=3.23003 kvar=0.6507979259297981 Phases=2

New Load.load_p1ulv2414 conn=wye bus1=p1ulv2414.1.2 kV=0.2080002494301389 Vminpu=0.8 Vmaxpu=1.2 model=1 kW=3.00003 kvar=0.6107500293370508 Phases=2

New Load.load_p1ulv2415 conn=wye bus1=p1ulv2415.1.2 kV=0.2080002494301389 Vminpu=0.8 Vmaxpu=1.2 model=1 kW=3.41003 kvar=0.6906498322195993 Phases=2

New Load.load_p1ulv2416 conn=wye bus1=p1ulv2416.1.2 kV=0.2080002494301389 Vminpu=0.8 Vmaxpu=1.2 model=1 kW=3.43003 kvar=0.70007864149034 Phases=2

New Load.load_p1ulv2417 conn=wye bus1=p1ulv2416.1.2 kV=0.2080002494301389 Vminpu=0.8 Vmaxpu=1.2 model=1 kW=3.13003 kvar=0.6404763570309296 Phases=2

New Load.load_p1ulv2418 conn=wye bus1=p1ulv2418.1.2 kV=0.2080002494301389 Vminpu=0.8 Vmaxpu=1.2 model=1 kW=3.21003 kvar=0.6501428670480555 Phases=2

New Load.load_p1ulv2419 conn=wye bus1=p1ulv2419.1.2 kV=0.2080002494301389 Vminpu=0.8 Vmaxpu=1.2 model=1 kW=3.23003 kvar=0.6592580864811803 Phases=2

New Load.load_p1ulv2420 conn=wye bus1=p1ulv2420.1.2 kV=0.2080002494301389 Vminpu=0.8 Vmaxpu=1.2 model=1 kW=3.49003 kvar=0.7105048699136965 Phases=2

New Load.load_p1ulv2421 conn=wye bus1=p1ulv2421.1.2 kV=0.2080002494301389 Vminpu=0.8 Vmaxpu=1.2 model=1 kW=3.50004 kvar=0.7107134345654403 Phases=2

New Load.load_p1ulv2422 conn=wye bus1=p1ulv2421.1.2 kV=0.2080002494301389 Vminpu=0.8 Vmaxpu=1.2 model=1 kW=2.64003 kvar=0.5402110512846091 Phases=2

New Load.load_p1ulv2423 conn=wye bus1=p1ulv2423.1.2 kV=0.2080002494301389 Vminpu=0.8 Vmaxpu=1.2 model=1 kW=3.9400400000000007 kvar=0.8000592452444024 Phases=2

New Load.load_p1ulv2424 conn=wye bus1=p1ulv2424.1.2 kV=0.2080002494301389 Vminpu=0.8 Vmaxpu=1.2 model=1 kW=2.47002 kvar=0.5002650705650844 Phases=2

New Load.load_p1ulv2425 conn=wye bus1=p1ulv2424.1.2 kV=0.2080002494301389 Vminpu=0.8 Vmaxpu=1.2 model=1 kW=3.3000300000000005 kvar=0.6700996718520332 Phases=2

New Load.load_p1ulv2426 conn=wye bus1=p1ulv2426.1.2 kV=0.2080002494301389 Vminpu=0.8 Vmaxpu=1.2 model=1 kW=3.3000300000000005 kvar=0.6700996718520332 Phases=2

New Load.load_p1ulv2427 conn=wye bus1=p1ulv2427.1.2 kV=0.2080002494301389 Vminpu=0.8 Vmaxpu=1.2 model=1 kW=2.8000300000000005 kvar=0.5700337678771953 Phases=2

New Load.load_p1ulv2428 conn=wye bus1=p1ulv2428.1.2 kV=0.2080002494301389 Vminpu=0.8 Vmaxpu=1.2 model=1 kW=3.25003 kvar=0.659946738820333 Phases=2

New Load.load_p1ulv2429 conn=wye bus1=p1ulv2429.1.2 kV=0.2080002494301389 Vminpu=0.8 Vmaxpu=1.2 model=1 kW=2.46002 kvar=0.49952836633286324 Phases=2

New Load.load_p1ulv2430 conn=wye bus1=p1ulv2430.1.2 kV=0.2080002494301389 Vminpu=0.8 Vmaxpu=1.2 model=1 kW=3.12003 kvar=0.6302766165192346 Phases=2

New Load.load_p1ulv2431 conn=wye bus1=p1ulv2431.1.2 kV=0.2080002494301389 Vminpu=0.8 Vmaxpu=1.2 model=1 kW=3.65004 kvar=0.7392602157737106 Phases=2

New Load.load_p1ulv2432 conn=wye bus1=p1ulv2432.1.2 kV=0.2080002494301389 Vminpu=0.8 Vmaxpu=1.2 model=1 kW=3.65004 kvar=0.7392602157737106 Phases=2

New Load.load_p1ulv2433 conn=wye bus1=p1ulv2433.1.2 kV=0.2080002494301389 Vminpu=0.8 Vmaxpu=1.2 model=1 kW=3.89004 kvar=0.789906312212702 Phases=2

New Load.load_p1ulv2434 conn=wye bus1=p1ulv2434.1.2 kV=0.2080002494301389 Vminpu=0.8 Vmaxpu=1.2 model=1 kW=4.18004 kvar=0.8509780077632708 Phases=2

New Load.load_p1ulv2435 conn=wye bus1=p1ulv2429.1.2 kV=0.2080002494301389 Vminpu=0.8 Vmaxpu=1.2 model=1 kW=4.00004 kvar=0.8101474048239126 Phases=2

New Load.load_p1ulv2436 conn=wye bus1=p1ulv2436.1.2 kV=0.2080002494301389 Vminpu=0.8 Vmaxpu=1.2 model=1 kW=4.34004 kvar=0.8790092456155372 Phases=2

New Load.load_p1ulv2437 conn=wye bus1=p1ulv2437.1.2 kV=0.2080002494301389 Vminpu=0.8 Vmaxpu=1.2 model=1 kW=3.59004 kvar=0.7308650364566972 Phases=2

New Load.load_p1ulv2438 conn=wye bus1=p1ulv2438.1.2 kV=0.2080002494301389 Vminpu=0.8 Vmaxpu=1.2 model=1 kW=3.44003 kvar=0.7003258045487328 Phases=2

New Load.load_p1ulv2439 conn=wye bus1=p1ulv2439.1.2 kV=0.2080002494301389 Vminpu=0.8 Vmaxpu=1.2 model=1 kW=3.18003 kvar=0.6507075106785133 Phases=2

New Load.load_p1ulv2440 conn=wye bus1=p1ulv2440.1.2 kV=0.2080002494301389 Vminpu=0.8 Vmaxpu=1.2 model=1 kW=3.0500300000000005 kvar=0.6193350066935321 Phases=2

New Load.load_p1ulv2441 conn=wye bus1=p1ulv2441.1.2 kV=0.2080002494301389 Vminpu=0.8 Vmaxpu=1.2 model=1 kW=2.96003 kvar=0.5995091605836256 Phases=2

New Load.load_p1ulv2442 conn=wye bus1=p1ulv2442.1.2 kV=0.2080002494301389 Vminpu=0.8 Vmaxpu=1.2 model=1 kW=3.3200300000000005 kvar=0.6706785752516337 Phases=2

New Load.load_p1ulv2443 conn=wye bus1=p1ulv2443.1.2 kV=0.2080002494301389 Vminpu=0.8 Vmaxpu=1.2 model=1 kW=3.50004 kvar=0.7107134345654403 Phases=2

New Load.load_p1ulv2444 conn=wye bus1=p1ulv2444.1.2 kV=0.2080002494301389 Vminpu=0.8 Vmaxpu=1.2 model=1 kW=3.97004 kvar=0.8102961810428216 Phases=2

New Load.load_p1ulv2445 conn=wye bus1=p1ulv2444.1.2 kV=0.2080002494301389 Vminpu=0.8 Vmaxpu=1.2 model=1 kW=3.87004 kvar=0.7898859035382418 Phases=2

New Load.load_p1ulv2446 conn=wye bus1=p1ulv2446.1.2 kV=0.2080002494301389 Vminpu=0.8 Vmaxpu=1.2 model=1 kW=3.60004 kvar=0.7291334744808246 Phases=2

New Load.load_p1ulv2447 conn=wye bus1=p1ulv2447.1.2 kV=0.2080002494301389 Vminpu=0.8 Vmaxpu=1.2 model=1 kW=4.19004 kvar=0.8508239104029033 Phases=2

New Load.load_p1ulv2448 conn=wye bus1=p1ulv2448.1.2 kV=0.2080002494301389 Vminpu=0.8 Vmaxpu=1.2 model=1 kW=3.38003 kvar=0.6898735027380501 Phases=2

New Load.load_p1ulv2449 conn=wye bus1=p1ulv2449.1.2 kV=0.2080002494301389 Vminpu=0.8 Vmaxpu=1.2 model=1 kW=5.04005 kvar=1.0207856490641993 Phases=2

New Load.load_p1ulv2450 conn=wye bus1=p1ulv2450.1.2 kV=0.2080002494301389 Vminpu=0.8 Vmaxpu=1.2 model=1 kW=3.2800300000000004 kvar=0.6694632252334703 Phases=2

New Load.load_p1ulv2451 conn=wye bus1=p1ulv2451.1.2 kV=0.2080002494301389 Vminpu=0.8 Vmaxpu=1.2 model=1 kW=2.7600300000000004 kvar=0.5604479951096709 Phases=2

New Load.load_p1ulv2452 conn=wye bus1=p1ulv2452.1.2 kV=0.2080002494301389 Vminpu=0.8 Vmaxpu=1.2 model=1 kW=2.15002 kvar=0.43994369930755917 Phases=2

New Load.load_p1ulv2453 conn=wye bus1=p1ulv2453.1.2 kV=0.2080002494301389 Vminpu=0.8 Vmaxpu=1.2 model=1 kW=3.17003 kvar=0.6403771062023346 Phases=2

New Load.load_p1ulv2454 conn=wye bus1=p1ulv2454.1.2 kV=0.2080002494301389 Vminpu=0.8 Vmaxpu=1.2 model=1 kW=3.08003 kvar=0.6302452033833459 Phases=2

New Load.load_p1ulv2455 conn=wye bus1=p1ulv2455.1.2 kV=0.2080002494301389 Vminpu=0.8 Vmaxpu=1.2 model=1 kW=3.04003 kvar=0.6204785592224786 Phases=2

New Load.load_p1ulv2456 conn=wye bus1=p1ulv2456.1.2 kV=0.2080002494301389 Vminpu=0.8 Vmaxpu=1.2 model=1 kW=3.97004 kvar=0.8102961810428216 Phases=2

New Load.load_p1ulv2457 conn=wye bus1=p1ulv2457.1.2 kV=0.2080002494301389 Vminpu=0.8 Vmaxpu=1.2 model=1 kW=3.00003 kvar=0.6107500293370508 Phases=2

New Load.load_p1ulv2458 conn=wye bus1=p1ulv2458.1.2 kV=0.2080002494301389 Vminpu=0.8 Vmaxpu=1.2 model=1 kW=2.64003 kvar=0.5402110512846091 Phases=2

New Load.load_p1ulv2459 conn=wye bus1=p1ulv2459.1.2 kV=0.2080002494301389 Vminpu=0.8 Vmaxpu=1.2 model=1 kW=2.81003 kvar=0.570600928141371 Phases=2

New Load.load_p1ulv2460 conn=wye bus1=p1ulv2460.1.2 kV=0.2080002494301389 Vminpu=0.8 Vmaxpu=1.2 model=1 kW=3.09003 kvar=0.6306836979747686 Phases=2

New Load.load_p1ulv2461 conn=wye bus1=p1ulv2461.1.2 kV=0.2080002494301389 Vminpu=0.8 Vmaxpu=1.2 model=1 kW=1.7300200000000001 kvar=0.350389299430372 Phases=2

New Load.load_p1ulv2462 conn=wye bus1=p1ulv2462.1.2 kV=0.2080002494301389 Vminpu=0.8 Vmaxpu=1.2 model=1 kW=2.49002 kvar=0.5095155441111284 Phases=2

New Load.load_p1ulv2463 conn=wye bus1=p1ulv2463.1.2 kV=0.2080002494301389 Vminpu=0.8 Vmaxpu=1.2 model=1 kW=3.21003 kvar=0.6501428670480555 Phases=2

New Load.load_p1ulv2464 conn=wye bus1=p1ulv2461.1.2 kV=0.2080002494301389 Vminpu=0.8 Vmaxpu=1.2 model=1 kW=3.65004 kvar=0.7392602157737106 Phases=2

New Load.load_p1ulv2465 conn=wye bus1=p1ulv2465.1.2 kV=0.2080002494301389 Vminpu=0.8 Vmaxpu=1.2 model=1 kW=3.53004 kvar=0.7204909600226704 Phases=2

New Load.load_p1ulv2466 conn=wye bus1=p1ulv2466.1.2 kV=0.2080002494301389 Vminpu=0.8 Vmaxpu=1.2 model=1 kW=2.75003 kvar=0.5598547025122315 Phases=2

New Load.load_p1ulv2467 conn=wye bus1=p1ulv2467.1.2 kV=0.2080002494301389 Vminpu=0.8 Vmaxpu=1.2 model=1 kW=2.25002 kvar=0.46040600660272657 Phases=2

New Load.load_p1ulv2468 conn=wye bus1=p1ulv2468.1.2 kV=0.2080002494301389 Vminpu=0.8 Vmaxpu=1.2 model=1 kW=2.7600300000000004 kvar=0.5604479951096709 Phases=2

New Load.load_p1ulv2469 conn=wye bus1=p1ulv2469.1.2 kV=0.2080002494301389 Vminpu=0.8 Vmaxpu=1.2 model=1 kW=2.41002 kvar=0.489375433301163 Phases=2

New Load.load_p1ulv2470 conn=wye bus1=p1ulv2470.1.2 kV=0.2080002494301389 Vminpu=0.8 Vmaxpu=1.2 model=1 kW=3.0300300000000004 kvar=0.6105012150057635 Phases=2

New Load.load_p1ulv2471 conn=wye bus1=p1ulv2471.1.2 kV=0.2080002494301389 Vminpu=0.8 Vmaxpu=1.2 model=1 kW=3.08003 kvar=0.6302452033833459 Phases=2

New Load.load_p1ulv2472 conn=wye bus1=p1ulv2472.1.2 kV=0.2080002494301389 Vminpu=0.8 Vmaxpu=1.2 model=1 kW=2.73003 kvar=0.5600443875194212 Phases=2

New Load.load_p1ulv2473 conn=wye bus1=p1ulv2473.1.2 kV=0.2080002494301389 Vminpu=0.8 Vmaxpu=1.2 model=1 kW=2.96003 kvar=0.5995091605836256 Phases=2

New Load.load_p1ulv2474 conn=wye bus1=p1ulv2474.1.2 kV=0.2080002494301389 Vminpu=0.8 Vmaxpu=1.2 model=1 kW=2.74003 kvar=0.5606733585797765 Phases=2

New Load.load_p1ulv2475 conn=wye bus1=p1ulv2475.1.2 kV=0.2080002494301389 Vminpu=0.8 Vmaxpu=1.2 model=1 kW=2.95003 kvar=0.6005709639720869 Phases=2

New Load.load_p1ulv2476 conn=wye bus1=p1ulv2476.1.2 kV=0.2080002494301389 Vminpu=0.8 Vmaxpu=1.2 model=1 kW=3.53004 kvar=0.7204909600226704 Phases=2

New Load.load_p1ulv2477 conn=wye bus1=p1ulv2477.1.2 kV=0.2080002494301389 Vminpu=0.8 Vmaxpu=1.2 model=1 kW=2.47002 kvar=0.5002650705650844 Phases=2

New Load.load_p1ulv2478 conn=wye bus1=p1ulv2478.1.2 kV=0.2080002494301389 Vminpu=0.8 Vmaxpu=1.2 model=1 kW=2.39002 kvar=0.49029398470315966 Phases=2

New Load.load_p1ulv2479 conn=wye bus1=p1ulv2479.1.2 kV=0.2080002494301389 Vminpu=0.8 Vmaxpu=1.2 model=1 kW=3.40003 kvar=0.6904055379154336 Phases=2

New Load.load_p1ulv2480 conn=wye bus1=p1ulv2480.1.2 kV=0.2080002494301389 Vminpu=0.8 Vmaxpu=1.2 model=1 kW=3.52004 kvar=0.7202814017128122 Phases=2

New Load.load_p1ulv2481 conn=wye bus1=p1ulv2481.1.2 kV=0.2080002494301389 Vminpu=0.8 Vmaxpu=1.2 model=1 kW=2.42002 kvar=0.49013832927219847 Phases=2

New Load.load_p1ulv2482 conn=wye bus1=p1ulv2482.1.2 kV=0.2080002494301389 Vminpu=0.8 Vmaxpu=1.2 model=1 kW=2.31002 kvar=0.4702768914874764 Phases=2

New Load.load_p1ulv2483 conn=wye bus1=p1ulv2483.1.2 kV=0.2080002494301389 Vminpu=0.8 Vmaxpu=1.2 model=1 kW=3.31003 kvar=0.6703963496338274 Phases=2

New Load.load_p1ulv2484 conn=wye bus1=p1ulv2484.1.2 kV=0.2080002494301389 Vminpu=0.8 Vmaxpu=1.2 model=1 kW=2.14002 kvar=0.4300500713784323 Phases=2

New Load.load_p1ulv2485 conn=wye bus1=p1ulv2485.1.2 kV=0.2080002494301389 Vminpu=0.8 Vmaxpu=1.2 model=1 kW=2.69003 kvar=0.5504422049321929 Phases=2

New Load.load_p1ulv2486 conn=wye bus1=p1ulv2485.1.2 kV=0.2080002494301389 Vminpu=0.8 Vmaxpu=1.2 model=1 kW=3.22003 kvar=0.6504775958854341 Phases=2

New Load.load_p1ulv2487 conn=wye bus1=p1ulv2487.1.2 kV=0.2080002494301389 Vminpu=0.8 Vmaxpu=1.2 model=1 kW=3.38003 kvar=0.6898735027380501 Phases=2

New Load.load_p1ulv2488 conn=wye bus1=p1ulv2488.1.2 kV=0.2080002494301389 Vminpu=0.8 Vmaxpu=1.2 model=1 kW=3.58004 kvar=0.7306960987749602 Phases=2

New Load.load_p1ulv2489 conn=wye bus1=p1ulv2489.1.2 kV=0.2080002494301389 Vminpu=0.8 Vmaxpu=1.2 model=1 kW=2.92003 kvar=0.5898746577868357 Phases=2

New Load.load_p1ulv2490 conn=wye bus1=p1ulv2490.1.2 kV=0.2080002494301389 Vminpu=0.8 Vmaxpu=1.2 model=1 kW=3.06003 kvar=0.6197626431693976 Phases=2

New Load.load_p1ulv2491 conn=wye bus1=p1ulv2491.1.2 kV=0.2080002494301389 Vminpu=0.8 Vmaxpu=1.2 model=1 kW=3.37003 kvar=0.6807790649347335 Phases=2

New Load.load_p1ulv2492 conn=wye bus1=p1ulv2492.1.2 kV=0.2080002494301389 Vminpu=0.8 Vmaxpu=1.2 model=1 kW=2.29002 kvar=0.46977976370487684 Phases=2

New Load.load_p1ulv2493 conn=wye bus1=p1ulv2493.1.2 kV=0.2080002494301389 Vminpu=0.8 Vmaxpu=1.2 model=1 kW=2.60003 kvar=0.5306733382023273 Phases=2

New Load.load_p1ulv2494 conn=wye bus1=p1ulv2494.1.2 kV=0.2080002494301389 Vminpu=0.8 Vmaxpu=1.2 model=1 kW=2.96003 kvar=0.5995091605836256 Phases=2

New Load.load_p1ulv2495 conn=wye bus1=p1ulv2495.1.2 kV=0.2080002494301389 Vminpu=0.8 Vmaxpu=1.2 model=1 kW=3.21003 kvar=0.6501428670480555 Phases=2

New Load.load_p1ulv2496 conn=wye bus1=p1ulv2496.1.2 kV=0.2080002494301389 Vminpu=0.8 Vmaxpu=1.2 model=1 kW=3.57004 kvar=0.7193043493362031 Phases=2

New Load.load_p1ulv2497 conn=wye bus1=p1ulv2497.1.2 kV=0.2080002494301389 Vminpu=0.8 Vmaxpu=1.2 model=1 kW=2.8200300000000005 kvar=0.5696736784206362 Phases=2

New Load.load_p1ulv2498 conn=wye bus1=p1ulv2498.1.2 kV=0.2080002494301389 Vminpu=0.8 Vmaxpu=1.2 model=1 kW=3.11003 kvar=0.6298893844622836 Phases=2

New Load.load_p1ulv2499 conn=wye bus1=p1ulv2499.1.2 kV=0.2080002494301389 Vminpu=0.8 Vmaxpu=1.2 model=1 kW=2.99003 kvar=0.6102734204701886 Phases=2

New Load.load_p1ulv2500 conn=wye bus1=p1ulv2500.1.2 kV=0.2080002494301389 Vminpu=0.8 Vmaxpu=1.2 model=1 kW=2.8200300000000005 kvar=0.5696736784206362 Phases=2

New Load.load_p1ulv2501 conn=wye bus1=p1ulv2501.1.2 kV=0.2080002494301389 Vminpu=0.8 Vmaxpu=1.2 model=1 kW=2.08002 kvar=0.4201844110128231 Phases=2

New Load.load_p1ulv2502 conn=wye bus1=p1ulv2502.1.2 kV=0.2080002494301389 Vminpu=0.8 Vmaxpu=1.2 model=1 kW=2.30002 kvar=0.46944046466083733 Phases=2

New Load.load_p1ulv2503 conn=wye bus1=p1ulv2503.1.2 kV=0.2080002494301389 Vminpu=0.8 Vmaxpu=1.2 model=1 kW=2.56003 kvar=0.5198362629828699 Phases=2

New Load.load_p1ulv2504 conn=wye bus1=p1ulv2504.1.2 kV=0.2080002494301389 Vminpu=0.8 Vmaxpu=1.2 model=1 kW=2.7800300000000004 kvar=0.5601303263507202 Phases=2

New Load.load_p1ulv2505 conn=wye bus1=p1ulv2505.1.2 kV=0.2080002494301389 Vminpu=0.8 Vmaxpu=1.2 model=1 kW=3.22003 kvar=0.6504775958854341 Phases=2

New Load.load_p1ulv2506 conn=wye bus1=p1ulv2506.1.2 kV=0.2080002494301389 Vminpu=0.8 Vmaxpu=1.2 model=1 kW=2.52003 kvar=0.510393837206229 Phases=2

New Load.load_p1ulv2507 conn=wye bus1=p1ulv2507.1.2 kV=0.2080002494301389 Vminpu=0.8 Vmaxpu=1.2 model=1 kW=2.90003 kvar=0.5903918986071232 Phases=2

New Load.load_p1ulv2508 conn=wye bus1=p1ulv2508.1.2 kV=0.2080002494301389 Vminpu=0.8 Vmaxpu=1.2 model=1 kW=2.58003 kvar=0.5198336154266855 Phases=2

New Load.load_p1ulv2509 conn=wye bus1=p1ulv2508.1.2 kV=0.2080002494301389 Vminpu=0.8 Vmaxpu=1.2 model=1 kW=3.08003 kvar=0.6205753927367721 Phases=2

New Load.load_p1ulv2510 conn=wye bus1=p1ulv2510.1.2 kV=0.2080002494301389 Vminpu=0.8 Vmaxpu=1.2 model=1 kW=3.34003 kvar=0.679967673818805 Phases=2

New Load.load_p1ulv2511 conn=wye bus1=p1ulv2511.1.2 kV=0.2080002494301389 Vminpu=0.8 Vmaxpu=1.2 model=1 kW=2.7600300000000004 kvar=0.5604479951096709 Phases=2

New Load.load_p1ulv2512 conn=wye bus1=p1ulv2512.1.2 kV=0.2080002494301389 Vminpu=0.8 Vmaxpu=1.2 model=1 kW=2.77003 kvar=0.5595731887375364 Phases=2

New Load.load_p1ulv2513 conn=wye bus1=p1ulv2513.1.2 kV=0.2080002494301389 Vminpu=0.8 Vmaxpu=1.2 model=1 kW=3.0700300000000005 kvar=0.620176126836135 Phases=2

New Load.load_p1ulv2514 conn=wye bus1=p1ulv2514.1.2 kV=0.2080002494301389 Vminpu=0.8 Vmaxpu=1.2 model=1 kW=3.90004 kvar=0.7898939222381405 Phases=2

New Load.load_p1ulv2515 conn=wye bus1=p1ulv2515.1.2 kV=0.2080002494301389 Vminpu=0.8 Vmaxpu=1.2 model=1 kW=2.25002 kvar=0.46040600660272657 Phases=2

New Load.load_p1ulv2516 conn=wye bus1=p1ulv2516.1.2 kV=0.2080002494301389 Vminpu=0.8 Vmaxpu=1.2 model=1 kW=2.75003 kvar=0.5598547025122315 Phases=2

New Load.load_p1ulv2517 conn=wye bus1=p1ulv2517.1.2 kV=0.2080002494301389 Vminpu=0.8 Vmaxpu=1.2 model=1 kW=3.0500300000000005 kvar=0.6193350066935321 Phases=2

New Load.load_p1ulv2518 conn=wye bus1=p1ulv2518.1.2 kV=0.2080002494301389 Vminpu=0.8 Vmaxpu=1.2 model=1 kW=3.02003 kvar=0.6100756371530351 Phases=2

New Load.load_p1ulv2519 conn=wye bus1=p1ulv2519.1.2 kV=0.2080002494301389 Vminpu=0.8 Vmaxpu=1.2 model=1 kW=2.87003 kvar=0.5797741681037358 Phases=2

New Load.load_p1ulv2520 conn=wye bus1=p1ulv2520.1.2 kV=0.2080002494301389 Vminpu=0.8 Vmaxpu=1.2 model=1 kW=3.0100300000000004 kvar=0.6096359018765115 Phases=2

New Load.load_p1ulv2521 conn=wye bus1=p1ulv2521.1.2 kV=0.2080002494301389 Vminpu=0.8 Vmaxpu=1.2 model=1 kW=2.91003 kvar=0.5893824192907394 Phases=2

New Load.load_p1ulv2522 conn=wye bus1=p1ulv2522.1.2 kV=0.2080002494301389 Vminpu=0.8 Vmaxpu=1.2 model=1 kW=3.15003 kvar=0.6396408727569326 Phases=2

New Load.load_p1ulv2523 conn=wye bus1=p1ulv2523.1.2 kV=0.2080002494301389 Vminpu=0.8 Vmaxpu=1.2 model=1 kW=2.91003 kvar=0.5893824192907394 Phases=2

New Load.load_p1ulv2524 conn=wye bus1=p1ulv2524.1.2 kV=0.2080002494301389 Vminpu=0.8 Vmaxpu=1.2 model=1 kW=2.77003 kvar=0.5595731887375364 Phases=2

New Load.load_p1ulv2525 conn=wye bus1=p1ulv2525.1.2 kV=0.2080002494301389 Vminpu=0.8 Vmaxpu=1.2 model=1 kW=2.86003 kvar=0.5807538611730713 Phases=2

New Load.load_p1ulv2526 conn=wye bus1=p1ulv2526.1.2 kV=0.2080002494301389 Vminpu=0.8 Vmaxpu=1.2 model=1 kW=1.85002 kvar=0.3698143735669326 Phases=2

New Load.load_p1ulv2527 conn=wye bus1=p1ulv2527.1.2 kV=0.2080002494301389 Vminpu=0.8 Vmaxpu=1.2 model=1 kW=3.12003 kvar=0.6302766165192346 Phases=2

New Load.load_p1ulv2528 conn=wye bus1=p1ulv2528.1.2 kV=0.2080002494301389 Vminpu=0.8 Vmaxpu=1.2 model=1 kW=2.91003 kvar=0.5893824192907394 Phases=2

New Load.load_p1ulv2529 conn=wye bus1=p1ulv2529.1.2 kV=0.2080002494301389 Vminpu=0.8 Vmaxpu=1.2 model=1 kW=2.96003 kvar=0.5995091605836256 Phases=2

New Load.load_p1ulv2530 conn=wye bus1=p1ulv2530.1.2 kV=0.2080002494301389 Vminpu=0.8 Vmaxpu=1.2 model=1 kW=2.8000300000000005 kvar=0.5700337678771953 Phases=2

New Load.load_p1ulv2531 conn=wye bus1=p1ulv2531.1.2 kV=0.2080002494301389 Vminpu=0.8 Vmaxpu=1.2 model=1 kW=2.92003 kvar=0.5898746577868357 Phases=2

New Load.load_p1ulv2532 conn=wye bus1=p1ulv2532.1.2 kV=0.2080002494301389 Vminpu=0.8 Vmaxpu=1.2 model=1 kW=2.85003 kvar=0.5802128332421591 Phases=2

New Load.load_p1ulv2533 conn=wye bus1=p1ulv2533.1.2 kV=0.2080002494301389 Vminpu=0.8 Vmaxpu=1.2 model=1 kW=3.27003 kvar=0.660578085568534 Phases=2

New Load.load_p1ulv2534 conn=wye bus1=p1ulv2534.1.2 kV=0.2080002494301389 Vminpu=0.8 Vmaxpu=1.2 model=1 kW=3.15003 kvar=0.6396408727569326 Phases=2

New Load.load_p1ulv2535 conn=wye bus1=p1ulv2535.1.2 kV=0.2080002494301389 Vminpu=0.8 Vmaxpu=1.2 model=1 kW=3.16003 kvar=0.6400161257551694 Phases=2

New Load.load_p1ulv2536 conn=wye bus1=p1ulv2536.1.2 kV=0.2080002494301389 Vminpu=0.8 Vmaxpu=1.2 model=1 kW=5.30005 kvar=1.0789911077515342 Phases=2

New Load.load_p1ulv2537 conn=wye bus1=p1ulv2537.1.2 kV=0.2080002494301389 Vminpu=0.8 Vmaxpu=1.2 model=1 kW=2.89003 kvar=0.5898631429656088 Phases=2

New Load.load_p1ulv2538 conn=wye bus1=p1ulv2538.1.2 kV=0.2080002494301389 Vminpu=0.8 Vmaxpu=1.2 model=1 kW=2.7800300000000004 kvar=0.5601303263507202 Phases=2

New Load.load_p1ulv2539 conn=wye bus1=p1ulv2539.1.2 kV=0.2080002494301389 Vminpu=0.8 Vmaxpu=1.2 model=1 kW=3.67004 kvar=0.749065348529082 Phases=2

New Load.load_p1ulv2540 conn=wye bus1=p1ulv2540.1.2 kV=0.2080002494301389 Vminpu=0.8 Vmaxpu=1.2 model=1 kW=2.98003 kvar=0.6004270372747549 Phases=2

New Load.load_p1ulv2541 conn=wye bus1=p1ulv2541.1.2 kV=0.2080002494301389 Vminpu=0.8 Vmaxpu=1.2 model=1 kW=2.8200300000000005 kvar=0.5696736784206362 Phases=2

New Load.load_p1ulv2542 conn=wye bus1=p1ulv2542.1.2 kV=0.2080002494301389 Vminpu=0.8 Vmaxpu=1.2 model=1 kW=2.81003 kvar=0.570600928141371 Phases=2

New Load.load_p1ulv2543 conn=wye bus1=p1ulv2543.1.2 kV=0.2080002494301389 Vminpu=0.8 Vmaxpu=1.2 model=1 kW=2.85003 kvar=0.5802128332421591 Phases=2

New Load.load_p1ulv2544 conn=wye bus1=p1ulv2544.1.2 kV=0.2080002494301389 Vminpu=0.8 Vmaxpu=1.2 model=1 kW=2.99003 kvar=0.6102734204701886 Phases=2

New Load.load_p1ulv2545 conn=wye bus1=p1ulv2545.1.2 kV=0.2080002494301389 Vminpu=0.8 Vmaxpu=1.2 model=1 kW=2.44002 kvar=0.5005510952023011 Phases=2

New Load.load_p1ulv2546 conn=wye bus1=p1ulv2546.1.2 kV=0.2080002494301389 Vminpu=0.8 Vmaxpu=1.2 model=1 kW=2.74003 kvar=0.5606733585797765 Phases=2

New Load.load_p1ulv2547 conn=wye bus1=p1ulv2547.1.2 kV=0.2080002494301389 Vminpu=0.8 Vmaxpu=1.2 model=1 kW=3.48003 kvar=0.71028378024263 Phases=2

New Load.load_p1ulv2548 conn=wye bus1=p1ulv2548.1.2 kV=0.2080002494301389 Vminpu=0.8 Vmaxpu=1.2 model=1 kW=2.7600300000000004 kvar=0.5604479951096709 Phases=2

New Load.load_p1ulv2549 conn=wye bus1=p1ulv2549.1.2 kV=0.2080002494301389 Vminpu=0.8 Vmaxpu=1.2 model=1 kW=2.89003 kvar=0.5898631429656088 Phases=2

New Load.load_p1ulv2550 conn=wye bus1=p1ulv2549.1.2 kV=0.2080002494301389 Vminpu=0.8 Vmaxpu=1.2 model=1 kW=2.58003 kvar=0.5198336154266855 Phases=2

New Load.load_p1ulv2551 conn=wye bus1=p1ulv2551.1.2 kV=0.2080002494301389 Vminpu=0.8 Vmaxpu=1.2 model=1 kW=2.98003 kvar=0.6004270372747549 Phases=2

New Load.load_p1ulv2552 conn=wye bus1=p1ulv2548.1.2 kV=0.2080002494301389 Vminpu=0.8 Vmaxpu=1.2 model=1 kW=2.79003 kvar=0.569452865461029 Phases=2

New Load.load_p1ulv2553 conn=wye bus1=p1ulv2553.1.2 kV=0.2080002494301389 Vminpu=0.8 Vmaxpu=1.2 model=1 kW=2.83003 kvar=0.580558608517704 Phases=2

New Load.load_p1ulv2554 conn=wye bus1=p1ulv2554.1.2 kV=0.2080002494301389 Vminpu=0.8 Vmaxpu=1.2 model=1 kW=2.88003 kvar=0.5802786818127376 Phases=2

New Load.load_p1ulv2555 conn=wye bus1=p1ulv2555.1.2 kV=0.2080002494301389 Vminpu=0.8 Vmaxpu=1.2 model=1 kW=3.49003 kvar=0.7105048699136965 Phases=2

New Load.load_p1ulv2556 conn=wye bus1=p1ulv2556.1.2 kV=0.2080002494301389 Vminpu=0.8 Vmaxpu=1.2 model=1 kW=2.60003 kvar=0.5306733382023273 Phases=2

New Load.load_p1ulv2557 conn=wye bus1=p1ulv2557.1.2 kV=0.2080002494301389 Vminpu=0.8 Vmaxpu=1.2 model=1 kW=1.87002 kvar=0.3797237565588007 Phases=2

New Load.load_p1ulv2558 conn=wye bus1=p1ulv2558.1.2 kV=0.2080002494301389 Vminpu=0.8 Vmaxpu=1.2 model=1 kW=3.59004 kvar=0.7308650364566972 Phases=2

New Load.load_p1ulv2559 conn=wye bus1=p1ulv2559.1.2 kV=0.2080002494301389 Vminpu=0.8 Vmaxpu=1.2 model=1 kW=3.21003 kvar=0.6501428670480555 Phases=2

New Load.load_p1ulv2560 conn=wye bus1=p1ulv2560.1.2 kV=0.2080002494301389 Vminpu=0.8 Vmaxpu=1.2 model=1 kW=2.59003 kvar=0.5299798976370255 Phases=2

New Load.load_p1ulv2561 conn=wye bus1=p1ulv2561.1.2 kV=0.2080002494301389 Vminpu=0.8 Vmaxpu=1.2 model=1 kW=2.5500300000000005 kvar=0.5204681994500374 Phases=2

New Load.load_p1ulv2562 conn=wye bus1=p1ulv2562.1.2 kV=0.2080002494301389 Vminpu=0.8 Vmaxpu=1.2 model=1 kW=2.98003 kvar=0.6097828960881785 Phases=2

New Load.load_p1ulv2563 conn=wye bus1=p1ulv2563.1.2 kV=0.2080002494301389 Vminpu=0.8 Vmaxpu=1.2 model=1 kW=2.95003 kvar=0.6005709639720869 Phases=2

New Load.load_p1ulv2564 conn=wye bus1=p1ulv2564.1.2 kV=0.2080002494301389 Vminpu=0.8 Vmaxpu=1.2 model=1 kW=3.22003 kvar=0.6504775958854341 Phases=2

New Load.load_p1ulv2565 conn=wye bus1=p1ulv2565.1.2 kV=0.2080002494301389 Vminpu=0.8 Vmaxpu=1.2 model=1 kW=2.71003 kvar=0.5502950620779706 Phases=2

New Load.load_p1ulv2566 conn=wye bus1=p1ulv2566.1.2 kV=0.2080002494301389 Vminpu=0.8 Vmaxpu=1.2 model=1 kW=2.91003 kvar=0.5893824192907394 Phases=2

New Load.load_p1ulv2567 conn=wye bus1=p1ulv2567.1.2 kV=0.2080002494301389 Vminpu=0.8 Vmaxpu=1.2 model=1 kW=2.24002 kvar=0.45014568129695803 Phases=2

New Load.load_p1ulv2568 conn=wye bus1=p1ulv2568.1.2 kV=0.2080002494301389 Vminpu=0.8 Vmaxpu=1.2 model=1 kW=2.84003 kvar=0.5796580042133189 Phases=2

New Load.load_p1ulv2569 conn=wye bus1=p1ulv2569.1.2 kV=0.2080002494301389 Vminpu=0.8 Vmaxpu=1.2 model=1 kW=2.7600300000000004 kvar=0.5604479951096709 Phases=2

New Load.load_p1ulv2570 conn=wye bus1=p1ulv2570.1.2 kV=0.2080002494301389 Vminpu=0.8 Vmaxpu=1.2 model=1 kW=2.8000300000000005 kvar=0.5700337678771953 Phases=2

New Load.load_p1ulv2571 conn=wye bus1=p1ulv2571.1.2 kV=0.2080002494301389 Vminpu=0.8 Vmaxpu=1.2 model=1 kW=2.89003 kvar=0.5898631429656088 Phases=2

New Load.load_p1ulv2572 conn=wye bus1=p1ulv2572.1.2 kV=0.2080002494301389 Vminpu=0.8 Vmaxpu=1.2 model=1 kW=2.79003 kvar=0.569452865461029 Phases=2

New Load.load_p1ulv2573 conn=wye bus1=p1ulv2573.1.2 kV=0.2080002494301389 Vminpu=0.8 Vmaxpu=1.2 model=1 kW=2.41002 kvar=0.489375433301163 Phases=2

New Load.load_p1ulv2574 conn=wye bus1=p1ulv2574.1.2 kV=0.2080002494301389 Vminpu=0.8 Vmaxpu=1.2 model=1 kW=2.69003 kvar=0.5504422049321929 Phases=2

New Load.load_p1ulv2591 conn=wye bus1=p1ulv2591.1.2.3 kV=0.48 Vminpu=0.8 Vmaxpu=1.2 model=1 kW=28.470300000000005 kvar=5.7811409858482925 Phases=3

New Load.load_p1ulv2592 conn=wye bus1=p1ulv2592.1.2.3 kV=0.48 Vminpu=0.8 Vmaxpu=1.2 model=1 kW=46.96050000000001 kvar=9.535736232703162 Phases=3

New Load.load_p1ulv3040 conn=wye bus1=p1ulv3040.1.2 kV=0.2080002494301389 Vminpu=0.8 Vmaxpu=1.2 model=1 kW=4.80005 kvar=0.9696571100672596 Phases=2

New Load.load_p1ulv3041 conn=wye bus1=p1ulv3041.1.2 kV=0.2080002494301389 Vminpu=0.8 Vmaxpu=1.2 model=1 kW=4.77005 kvar=0.9710930148829175 Phases=2

New Load.load_p1ulv3042 conn=wye bus1=p1ulv3042.1.2 kV=0.2080002494301389 Vminpu=0.8 Vmaxpu=1.2 model=1 kW=4.89005 kvar=0.9904054251855413 Phases=2

New Load.load_p1ulv3043 conn=wye bus1=p1ulv3043.1.2 kV=0.2080002494301389 Vminpu=0.8 Vmaxpu=1.2 model=1 kW=4.72005 kvar=0.9609139495179535 Phases=2

New Load.load_p1ulv3044 conn=wye bus1=p1ulv3044.1.2 kV=0.2080002494301389 Vminpu=0.8 Vmaxpu=1.2 model=1 kW=4.68005 kvar=0.9503246847001716 Phases=2

New Load.load_p1ulv3045 conn=wye bus1=p1ulv3045.1.2 kV=0.2080002494301389 Vminpu=0.8 Vmaxpu=1.2 model=1 kW=4.86005 kvar=0.9894153325398525 Phases=2

New Load.load_p1ulv3046 conn=wye bus1=p1ulv3046.1.2 kV=0.2080002494301389 Vminpu=0.8 Vmaxpu=1.2 model=1 kW=5.10005 kvar=1.0409343578723245 Phases=2

New Load.load_p1ulv3047 conn=wye bus1=p1ulv3047.1.2 kV=0.2080002494301389 Vminpu=0.8 Vmaxpu=1.2 model=1 kW=4.2400400000000005 kvar=0.8609768434346036 Phases=2

New Load.load_p1ulv3048 conn=wye bus1=p1ulv3048.1.2 kV=0.2080002494301389 Vminpu=0.8 Vmaxpu=1.2 model=1 kW=4.82005 kvar=0.9787528971889325 Phases=2

New Load.load_p1ulv3049 conn=wye bus1=p1ulv3049.1.2 kV=0.2080002494301389 Vminpu=0.8 Vmaxpu=1.2 model=1 kW=4.89005 kvar=0.9904054251855413 Phases=2

New Load.load_p1ulv3050 conn=wye bus1=p1ulv3050.1.2 kV=0.2080002494301389 Vminpu=0.8 Vmaxpu=1.2 model=1 kW=4.53005 kvar=0.9198658856050712 Phases=2

New Load.load_p1ulv3051 conn=wye bus1=p1ulv3051.1.2 kV=0.2080002494301389 Vminpu=0.8 Vmaxpu=1.2 model=1 kW=4.630050000000001 kvar=0.9401717516684716 Phases=2

New Load.load_p1ulv3052 conn=wye bus1=p1ulv3052.1.2 kV=0.2080002494301389 Vminpu=0.8 Vmaxpu=1.2 model=1 kW=4.55005 kvar=0.9191546616517607 Phases=2

New Load.load_p1ulv3053 conn=wye bus1=p1ulv3053.1.2 kV=0.2080002494301389 Vminpu=0.8 Vmaxpu=1.2 model=1 kW=5.23005 kvar=1.059267265977166 Phases=2

New Load.load_p1ulv3054 conn=wye bus1=p1ulv3054.1.2 kV=0.2080002494301389 Vminpu=0.8 Vmaxpu=1.2 model=1 kW=4.68005 kvar=0.9503246847001716 Phases=2

New Load.load_p1ulv3055 conn=wye bus1=p1ulv3055.1.2 kV=0.2080002494301389 Vminpu=0.8 Vmaxpu=1.2 model=1 kW=4.47004 kvar=0.9100165868800613 Phases=2

New Load.load_p1ulv3056 conn=wye bus1=p1ulv3056.1.2 kV=0.2080002494301389 Vminpu=0.8 Vmaxpu=1.2 model=1 kW=4.99005 kvar=1.0106589077713133 Phases=2

New Load.load_p1ulv3057 conn=wye bus1=p1ulv3057.1.2 kV=0.2080002494301389 Vminpu=0.8 Vmaxpu=1.2 model=1 kW=4.86005 kvar=0.9894153325398525 Phases=2

New Load.load_p1ulv3058 conn=wye bus1=p1ulv3058.1.2 kV=0.2080002494301389 Vminpu=0.8 Vmaxpu=1.2 model=1 kW=4.82005 kvar=0.9787528971889325 Phases=2

New Load.load_p1ulv3059 conn=wye bus1=p1ulv3058.1.2 kV=0.2080002494301389 Vminpu=0.8 Vmaxpu=1.2 model=1 kW=4.61005 kvar=0.9409239980998833 Phases=2

New Load.load_p1ulv3060 conn=wye bus1=p1ulv3060.1.2 kV=0.2080002494301389 Vminpu=0.8 Vmaxpu=1.2 model=1 kW=5.01005 kvar=1.019952528634744 Phases=2

New Load.load_p1ulv3061 conn=wye bus1=p1ulv3061.1.2 kV=0.2080002494301389 Vminpu=0.8 Vmaxpu=1.2 model=1 kW=4.94005 kvar=1.0005321664784275 Phases=2

New Load.load_p1ulv3062 conn=wye bus1=p1ulv3062.1.2 kV=0.2080002494301389 Vminpu=0.8 Vmaxpu=1.2 model=1 kW=4.68005 kvar=0.9503246847001716 Phases=2

New Load.load_p1ulv3063 conn=wye bus1=p1ulv3063.1.2 kV=0.2080002494301389 Vminpu=0.8 Vmaxpu=1.2 model=1 kW=4.71005 kvar=0.9588781364449609 Phases=2

New Load.load_p1ulv4167 conn=wye bus1=p1ulv4167.1.2 kV=0.2080002494301389 Vminpu=0.8 Vmaxpu=1.2 model=1 kW=3.34003 kvar=0.679967673818805 Phases=2

New Load.load_p1ulv4168 conn=wye bus1=p1ulv4168.1.2 kV=0.2080002494301389 Vminpu=0.8 Vmaxpu=1.2 model=1 kW=2.69003 kvar=0.5504422049321929 Phases=2

New Load.load_p1ulv4169 conn=wye bus1=p1ulv4169.1.2 kV=0.2080002494301389 Vminpu=0.8 Vmaxpu=1.2 model=1 kW=2.62003 kvar=0.5306473197920009 Phases=2

New Load.load_p1ulv4170 conn=wye bus1=p1ulv4170.1.2 kV=0.2080002494301389 Vminpu=0.8 Vmaxpu=1.2 model=1 kW=2.57003 kvar=0.520520578499115 Phases=2

New Load.load_p1ulv4171 conn=wye bus1=p1ulv4171.1.2 kV=0.2080002494301389 Vminpu=0.8 Vmaxpu=1.2 model=1 kW=3.47003 kvar=0.6991539790386396 Phases=2

New Load.load_p1ulv4172 conn=wye bus1=p1ulv4172.1.2 kV=0.2080002494301389 Vminpu=0.8 Vmaxpu=1.2 model=1 kW=3.16003 kvar=0.6400161257551694 Phases=2

New Load.load_p1ulv4173 conn=wye bus1=p1ulv4173.1.2 kV=0.2080002494301389 Vminpu=0.8 Vmaxpu=1.2 model=1 kW=2.29002 kvar=0.46977976370487684 Phases=2

New Load.load_p1ulv4174 conn=wye bus1=p1ulv4174.1.2 kV=0.2080002494301389 Vminpu=0.8 Vmaxpu=1.2 model=1 kW=2.77003 kvar=0.5595731887375364 Phases=2

New Load.load_p1ulv4175 conn=wye bus1=p1ulv4175.1.2 kV=0.2080002494301389 Vminpu=0.8 Vmaxpu=1.2 model=1 kW=3.45003 kvar=0.7005584709471337 Phases=2

New Load.load_p1ulv4176 conn=wye bus1=p1ulv4176.1.2 kV=0.2080002494301389 Vminpu=0.8 Vmaxpu=1.2 model=1 kW=3.46003 kvar=0.7007765735124853 Phases=2

New Load.load_p1ulv4177 conn=wye bus1=p1ulv4177.1.2 kV=0.2080002494301389 Vminpu=0.8 Vmaxpu=1.2 model=1 kW=2.5500300000000005 kvar=0.5204681994500374 Phases=2

New Load.load_p1ulv4178 conn=wye bus1=p1ulv4178.1.2 kV=0.2080002494301389 Vminpu=0.8 Vmaxpu=1.2 model=1 kW=2.7600300000000004 kvar=0.5604479951096709 Phases=2

New Load.load_p1ulv4179 conn=wye bus1=p1ulv4179.1.2 kV=0.2080002494301389 Vminpu=0.8 Vmaxpu=1.2 model=1 kW=1.86002 kvar=0.37963524364068607 Phases=2

New Load.load_p1ulv4180 conn=wye bus1=p1ulv4180.1.2 kV=0.2080002494301389 Vminpu=0.8 Vmaxpu=1.2 model=1 kW=3.0500300000000005 kvar=0.6193350066935321 Phases=2

New Load.load_p1ulv4181 conn=wye bus1=p1ulv4181.1.2 kV=0.2080002494301389 Vminpu=0.8 Vmaxpu=1.2 model=1 kW=3.59004 kvar=0.7308650364566972 Phases=2

New Load.load_p1ulv4182 conn=wye bus1=p1ulv4182.1.2 kV=0.2080002494301389 Vminpu=0.8 Vmaxpu=1.2 model=1 kW=3.67004 kvar=0.7394527047982206 Phases=2

New Load.load_p1ulv4183 conn=wye bus1=p1ulv4183.1.2 kV=0.2080002494301389 Vminpu=0.8 Vmaxpu=1.2 model=1 kW=2.87003 kvar=0.5797741681037358 Phases=2

New Load.load_p1ulv4184 conn=wye bus1=p1ulv4184.1.2 kV=0.2080002494301389 Vminpu=0.8 Vmaxpu=1.2 model=1 kW=1.7300200000000001 kvar=0.350389299430372 Phases=2

New Load.load_p1ulv4185 conn=wye bus1=p1ulv4185.1.2 kV=0.2080002494301389 Vminpu=0.8 Vmaxpu=1.2 model=1 kW=2.94003 kvar=0.6000682817178988 Phases=2

New Load.load_p1ulv4186 conn=wye bus1=p1ulv4186.1.2 kV=0.2080002494301389 Vminpu=0.8 Vmaxpu=1.2 model=1 kW=2.32002 kvar=0.46988484668642644 Phases=2

New Load.load_p1ulv4187 conn=wye bus1=p1ulv4187.1.2 kV=0.2080002494301389 Vminpu=0.8 Vmaxpu=1.2 model=1 kW=3.58004 kvar=0.7306960987749602 Phases=2

New Load.load_p1ulv4188 conn=wye bus1=p1ulv4188.1.2 kV=0.2080002494301389 Vminpu=0.8 Vmaxpu=1.2 model=1 kW=3.55004 kvar=0.7208663675971405 Phases=2

New Load.load_p1ulv4189 conn=wye bus1=p1ulv4189.1.2 kV=0.2080002494301389 Vminpu=0.8 Vmaxpu=1.2 model=1 kW=2.5500300000000005 kvar=0.5204681994500374 Phases=2

New Load.load_p1ulv4190 conn=wye bus1=p1ulv4190.1.2 kV=0.2080002494301389 Vminpu=0.8 Vmaxpu=1.2 model=1 kW=2.56003 kvar=0.5198362629828699 Phases=2

New Load.load_p1ulv4191 conn=wye bus1=p1ulv4191.1.2 kV=0.2080002494301389 Vminpu=0.8 Vmaxpu=1.2 model=1 kW=2.91003 kvar=0.5893824192907394 Phases=2

New Load.load_p1ulv4192 conn=wye bus1=p1ulv4192.1.2 kV=0.2080002494301389 Vminpu=0.8 Vmaxpu=1.2 model=1 kW=3.65004 kvar=0.7392602157737106 Phases=2

New Load.load_p1ulv4193 conn=wye bus1=p1ulv4193.1.2 kV=0.2080002494301389 Vminpu=0.8 Vmaxpu=1.2 model=1 kW=3.7100400000000002 kvar=0.7494644148777485 Phases=2

New Load.load_p1ulv4194 conn=wye bus1=p1ulv4194.1.2 kV=0.2080002494301389 Vminpu=0.8 Vmaxpu=1.2 model=1 kW=2.79003 kvar=0.569452865461029 Phases=2

New Load.load_p1ulv4195 conn=wye bus1=p1ulv4195.1.2 kV=0.2080002494301389 Vminpu=0.8 Vmaxpu=1.2 model=1 kW=3.12003 kvar=0.6302766165192346 Phases=2

New Load.load_p1ulv4196 conn=wye bus1=p1ulv4196.1.2 kV=0.2080002494301389 Vminpu=0.8 Vmaxpu=1.2 model=1 kW=3.14003 kvar=0.6392514123589496 Phases=2

New Load.load_p1ulv4197 conn=wye bus1=p1ulv4197.1.2 kV=0.2080002494301389 Vminpu=0.8 Vmaxpu=1.2 model=1 kW=3.25003 kvar=0.659946738820333 Phases=2

New Load.load_p1ulv4198 conn=wye bus1=p1ulv4198.1.2 kV=0.2080002494301389 Vminpu=0.8 Vmaxpu=1.2 model=1 kW=2.71003 kvar=0.5502950620779706 Phases=2

New Load.load_p1ulv4199 conn=wye bus1=p1ulv4199.1.2 kV=0.2080002494301389 Vminpu=0.8 Vmaxpu=1.2 model=1 kW=2.39002 kvar=0.49029398470315966 Phases=2

New Load.load_p1ulv4200 conn=wye bus1=p1ulv4200.1.2 kV=0.2080002494301389 Vminpu=0.8 Vmaxpu=1.2 model=1 kW=3.22003 kvar=0.6504775958854341 Phases=2

New Load.load_p1ulv4201 conn=wye bus1=p1ulv4201.1.2 kV=0.2080002494301389 Vminpu=0.8 Vmaxpu=1.2 model=1 kW=3.56004 kvar=0.7191629458284491 Phases=2

New Load.load_p1ulv4202 conn=wye bus1=p1ulv4202.1.2 kV=0.2080002494301389 Vminpu=0.8 Vmaxpu=1.2 model=1 kW=2.79003 kvar=0.569452865461029 Phases=2

New Load.load_p1ulv4203 conn=wye bus1=p1ulv4203.1.2 kV=0.2080002494301389 Vminpu=0.8 Vmaxpu=1.2 model=1 kW=2.28002 kvar=0.46058636974522216 Phases=2

New Load.load_p1ulv4204 conn=wye bus1=p1ulv4204.1.2 kV=0.2080002494301389 Vminpu=0.8 Vmaxpu=1.2 model=1 kW=3.13003 kvar=0.6404763570309296 Phases=2

New Load.load_p1ulv4205 conn=wye bus1=p1ulv4205.1.2 kV=0.2080002494301389 Vminpu=0.8 Vmaxpu=1.2 model=1 kW=3.0700300000000005 kvar=0.620176126836135 Phases=2

New Load.load_p1ulv4206 conn=wye bus1=p1ulv4206.1.2 kV=0.2080002494301389 Vminpu=0.8 Vmaxpu=1.2 model=1 kW=2.3500200000000007 kvar=0.47964560341312734 Phases=2

New Load.load_p1ulv4207 conn=wye bus1=p1ulv4207.1.2 kV=0.2080002494301389 Vminpu=0.8 Vmaxpu=1.2 model=1 kW=3.09003 kvar=0.6306836979747686 Phases=2

New Load.load_p1ulv4208 conn=wye bus1=p1ulv4208.1.2 kV=0.2080002494301389 Vminpu=0.8 Vmaxpu=1.2 model=1 kW=3.7500400000000003 kvar=0.7595136983594827 Phases=2

New Load.load_p1ulv4209 conn=wye bus1=p1ulv4209.1.2 kV=0.2080002494301389 Vminpu=0.8 Vmaxpu=1.2 model=1 kW=3.12003 kvar=0.6302766165192346 Phases=2

New Load.load_p1ulv4210 conn=wye bus1=p1ulv4210.1.2 kV=0.2080002494301389 Vminpu=0.8 Vmaxpu=1.2 model=1 kW=2.96003 kvar=0.5995091605836256 Phases=2

New Load.load_p1ulv4211 conn=wye bus1=p1ulv4211.1.2 kV=0.2080002494301389 Vminpu=0.8 Vmaxpu=1.2 model=1 kW=2.8200300000000005 kvar=0.5696736784206362 Phases=2

New Load.load_p1ulv4212 conn=wye bus1=p1ulv4212.1.2 kV=0.2080002494301389 Vminpu=0.8 Vmaxpu=1.2 model=1 kW=2.77003 kvar=0.5595731887375364 Phases=2

New Load.load_p1ulv4213 conn=wye bus1=p1ulv4213.1.2 kV=0.2080002494301389 Vminpu=0.8 Vmaxpu=1.2 model=1 kW=2.62003 kvar=0.5306473197920009 Phases=2

New Load.load_p1ulv4214 conn=wye bus1=p1ulv4214.1.2 kV=0.2080002494301389 Vminpu=0.8 Vmaxpu=1.2 model=1 kW=3.45003 kvar=0.7005584709471337 Phases=2

New Load.load_p1ulv4215 conn=wye bus1=p1ulv4215.1.2 kV=0.2080002494301389 Vminpu=0.8 Vmaxpu=1.2 model=1 kW=2.92003 kvar=0.5898746577868357 Phases=2

New Load.load_p1ulv4216 conn=wye bus1=p1ulv4216.1.2 kV=0.2080002494301389 Vminpu=0.8 Vmaxpu=1.2 model=1 kW=2.7600300000000004 kvar=0.5604479951096709 Phases=2

New Load.load_p1ulv4217 conn=wye bus1=p1ulv4217.1.2 kV=0.2080002494301389 Vminpu=0.8 Vmaxpu=1.2 model=1 kW=2.70003 kvar=0.5496756371472675 Phases=2

New Load.load_p1ulv4218 conn=wye bus1=p1ulv4218.1.2 kV=0.2080002494301389 Vminpu=0.8 Vmaxpu=1.2 model=1 kW=1.85002 kvar=0.38047547394451825 Phases=2

New Load.load_p1ulv4219 conn=wye bus1=p1ulv4219.1.2 kV=0.2080002494301389 Vminpu=0.8 Vmaxpu=1.2 model=1 kW=2.88003 kvar=0.5802786818127376 Phases=2

New Load.load_p1ulv4220 conn=wye bus1=p1ulv4220.1.2 kV=0.2080002494301389 Vminpu=0.8 Vmaxpu=1.2 model=1 kW=3.34003 kvar=0.679967673818805 Phases=2

New Load.load_p1ulv4221 conn=wye bus1=p1ulv4221.1.2 kV=0.2080002494301389 Vminpu=0.8 Vmaxpu=1.2 model=1 kW=2.8000300000000005 kvar=0.5700337678771953 Phases=2

New Load.load_p1ulv4222 conn=wye bus1=p1ulv4222.1.2 kV=0.2080002494301389 Vminpu=0.8 Vmaxpu=1.2 model=1 kW=3.0700300000000005 kvar=0.620176126836135 Phases=2

New Load.load_p1ulv4223 conn=wye bus1=p1ulv4223.1.2 kV=0.2080002494301389 Vminpu=0.8 Vmaxpu=1.2 model=1 kW=3.22003 kvar=0.6504775958854341 Phases=2

New Load.load_p1ulv4224 conn=wye bus1=p1ulv4224.1.2 kV=0.2080002494301389 Vminpu=0.8 Vmaxpu=1.2 model=1 kW=3.27003 kvar=0.660578085568534 Phases=2

New Load.load_p1ulv4225 conn=wye bus1=p1ulv4225.1.2 kV=0.2080002494301389 Vminpu=0.8 Vmaxpu=1.2 model=1 kW=2.27002 kvar=0.4597581053935405 Phases=2

New Load.load_p1ulv4226 conn=wye bus1=p1ulv4226.1.2 kV=0.2080002494301389 Vminpu=0.8 Vmaxpu=1.2 model=1 kW=2.99003 kvar=0.6102734204701886 Phases=2

New Load.load_p1ulv4227 conn=wye bus1=p1ulv4227.1.2 kV=0.2080002494301389 Vminpu=0.8 Vmaxpu=1.2 model=1 kW=3.22003 kvar=0.6504775958854341 Phases=2

New Load.load_p1ulv4228 conn=wye bus1=p1ulv4228.1.2 kV=0.2080002494301389 Vminpu=0.8 Vmaxpu=1.2 model=1 kW=3.00003 kvar=0.6107500293370508 Phases=2

New Load.load_p1ulv4229 conn=wye bus1=p1ulv4229.1.2 kV=0.2080002494301389 Vminpu=0.8 Vmaxpu=1.2 model=1 kW=2.28002 kvar=0.46058636974522216 Phases=2

New Load.load_p1ulv4230 conn=wye bus1=p1ulv4230.1.2 kV=0.2080002494301389 Vminpu=0.8 Vmaxpu=1.2 model=1 kW=2.98003 kvar=0.6004270372747549 Phases=2

New Load.load_p1ulv4231 conn=wye bus1=p1ulv4231.1.2 kV=0.2080002494301389 Vminpu=0.8 Vmaxpu=1.2 model=1 kW=3.14003 kvar=0.6392514123589496 Phases=2

New Load.load_p1ulv4232 conn=wye bus1=p1ulv4232.1.2 kV=0.2080002494301389 Vminpu=0.8 Vmaxpu=1.2 model=1 kW=2.36002 kvar=0.4804559568524403 Phases=2

New Load.load_p1ulv4233 conn=wye bus1=p1ulv4233.1.2 kV=0.2080002494301389 Vminpu=0.8 Vmaxpu=1.2 model=1 kW=2.16002 kvar=0.43973969539258484 Phases=2

New Load.load_p1ulv4234 conn=wye bus1=p1ulv4234.1.2 kV=0.2080002494301389 Vminpu=0.8 Vmaxpu=1.2 model=1 kW=4.66005 kvar=0.951129136852173 Phases=2

New Load.load_p1ulv4235 conn=wye bus1=p1ulv4235.1.2 kV=0.2080002494301389 Vminpu=0.8 Vmaxpu=1.2 model=1 kW=2.28002 kvar=0.46058636974522216 Phases=2

New Load.load_p1ulv4236 conn=wye bus1=p1ulv4235.1.2 kV=0.2080002494301389 Vminpu=0.8 Vmaxpu=1.2 model=1 kW=2.90003 kvar=0.5903918986071232 Phases=2

New Load.load_p1ulv4237 conn=wye bus1=p1ulv4237.1.2 kV=0.2080002494301389 Vminpu=0.8 Vmaxpu=1.2 model=1 kW=3.3200300000000005 kvar=0.6706785752516337 Phases=2

New Load.load_p1ulv4238 conn=wye bus1=p1ulv4238.1.2 kV=0.2080002494301389 Vminpu=0.8 Vmaxpu=1.2 model=1 kW=3.16003 kvar=0.6400161257551694 Phases=2

New Load.load_p1ulv4239 conn=wye bus1=p1ulv4239.1.2 kV=0.2080002494301389 Vminpu=0.8 Vmaxpu=1.2 model=1 kW=2.8000300000000005 kvar=0.5700337678771953 Phases=2

New Load.load_p1ulv4240 conn=wye bus1=p1ulv4240.1.2 kV=0.2080002494301389 Vminpu=0.8 Vmaxpu=1.2 model=1 kW=2.96003 kvar=0.5995091605836256 Phases=2

New Load.load_p1ulv4241 conn=wye bus1=p1ulv4241.1.2 kV=0.2080002494301389 Vminpu=0.8 Vmaxpu=1.2 model=1 kW=3.06003 kvar=0.6197626431693976 Phases=2

New Load.load_p1ulv4242 conn=wye bus1=p1ulv4242.1.2 kV=0.2080002494301389 Vminpu=0.8 Vmaxpu=1.2 model=1 kW=3.54004 kvar=0.7206859710917335 Phases=2

New Load.load_p1ulv5532 conn=wye bus1=p1ulv5532.1.2 kV=0.2080002494301389 Vminpu=0.8 Vmaxpu=1.2 model=1 kW=3.47003 kvar=0.6991539790386396 Phases=2

New Load.load_p1ulv5533 conn=wye bus1=p1ulv5533.1.2 kV=0.2080002494301389 Vminpu=0.8 Vmaxpu=1.2 model=1 kW=2.69003 kvar=0.5504422049321929 Phases=2

New Load.load_p1ulv5534 conn=wye bus1=p1ulv5534.1.2 kV=0.2080002494301389 Vminpu=0.8 Vmaxpu=1.2 model=1 kW=2.99003 kvar=0.6102734204701886 Phases=2

New Load.load_p1ulv5535 conn=wye bus1=p1ulv5535.1.2 kV=0.2080002494301389 Vminpu=0.8 Vmaxpu=1.2 model=1 kW=3.13003 kvar=0.6404763570309296 Phases=2

New Load.load_p1ulv5536 conn=wye bus1=p1ulv5536.1.2 kV=0.2080002494301389 Vminpu=0.8 Vmaxpu=1.2 model=1 kW=3.9800400000000002 kvar=0.8102617463034154 Phases=2

New Load.load_p1ulv5537 conn=wye bus1=p1ulv5537.1.2 kV=0.2080002494301389 Vminpu=0.8 Vmaxpu=1.2 model=1 kW=4.23004 kvar=0.8589462568282636 Phases=2

New Load.load_p1ulv5538 conn=wye bus1=p1ulv5538.1.2 kV=0.2080002494301389 Vminpu=0.8 Vmaxpu=1.2 model=1 kW=3.08003 kvar=0.6302452033833459 Phases=2

New Load.load_p1ulv5539 conn=wye bus1=p1ulv5539.1.2 kV=0.2080002494301389 Vminpu=0.8 Vmaxpu=1.2 model=1 kW=3.9800400000000002 kvar=0.8102617463034154 Phases=2

New Load.load_p1ulv5540 conn=wye bus1=p1ulv5540.1.2 kV=0.2080002494301389 Vminpu=0.8 Vmaxpu=1.2 model=1 kW=3.36003 kvar=0.6805230909267135 Phases=2

New Load.load_p1ulv5541 conn=wye bus1=p1ulv5541.1.2 kV=0.2080002494301389 Vminpu=0.8 Vmaxpu=1.2 model=1 kW=3.99004 kvar=0.8102121782761024 Phases=2

New Load.load_p1ulv5542 conn=wye bus1=p1ulv5542.1.2 kV=0.2080002494301389 Vminpu=0.8 Vmaxpu=1.2 model=1 kW=3.9800400000000002 kvar=0.8102617463034154 Phases=2

New Load.load_p1ulv5543 conn=wye bus1=p1ulv5543.1.2 kV=0.2080002494301389 Vminpu=0.8 Vmaxpu=1.2 model=1 kW=4.06004 kvar=0.8201678426594468 Phases=2

New Load.load_p1ulv5544 conn=wye bus1=p1ulv5544.1.2 kV=0.2080002494301389 Vminpu=0.8 Vmaxpu=1.2 model=1 kW=3.44003 kvar=0.7003258045487328 Phases=2

New Load.load_p1ulv5545 conn=wye bus1=p1ulv5545.1.2 kV=0.2080002494301389 Vminpu=0.8 Vmaxpu=1.2 model=1 kW=4.15004 kvar=0.8405276287025704 Phases=2

New Load.load_p1ulv5546 conn=wye bus1=p1ulv5546.1.2 kV=0.2080002494301389 Vminpu=0.8 Vmaxpu=1.2 model=1 kW=2.73003 kvar=0.5500561486197115 Phases=2

New Load.load_p1ulv5547 conn=wye bus1=p1ulv5547.1.2 kV=0.2080002494301389 Vminpu=0.8 Vmaxpu=1.2 model=1 kW=4.10004 kvar=0.8304008874096844 Phases=2

New Load.load_p1ulv5548 conn=wye bus1=p1ulv5548.1.2 kV=0.2080002494301389 Vminpu=0.8 Vmaxpu=1.2 model=1 kW=3.53004 kvar=0.7204909600226704 Phases=2

New Load.load_p1ulv5549 conn=wye bus1=p1ulv5549.1.2 kV=0.2080002494301389 Vminpu=0.8 Vmaxpu=1.2 model=1 kW=3.93004 kvar=0.8000826809384517 Phases=2

New Load.load_p1ulv5550 conn=wye bus1=p1ulv5550.1.2 kV=0.2080002494301389 Vminpu=0.8 Vmaxpu=1.2 model=1 kW=3.27003 kvar=0.660578085568534 Phases=2

New Load.load_p1ulv5551 conn=wye bus1=p1ulv5551.1.2 kV=0.2080002494301389 Vminpu=0.8 Vmaxpu=1.2 model=1 kW=4.38004 kvar=0.8894050559233643 Phases=2

New Load.load_p1ulv5552 conn=wye bus1=p1ulv5552.1.2 kV=0.2080002494301389 Vminpu=0.8 Vmaxpu=1.2 model=1 kW=3.40003 kvar=0.6904055379154336 Phases=2

New Load.load_p1ulv5553 conn=wye bus1=p1ulv5553.1.2 kV=0.2080002494301389 Vminpu=0.8 Vmaxpu=1.2 model=1 kW=3.51004 kvar=0.7109053401536299 Phases=2

New Load.load_p1ulv5554 conn=wye bus1=p1ulv5554.1.2 kV=0.2080002494301389 Vminpu=0.8 Vmaxpu=1.2 model=1 kW=2.77003 kvar=0.5595731887375364 Phases=2

New Load.load_p1ulv5555 conn=wye bus1=p1ulv5555.1.2 kV=0.2080002494301389 Vminpu=0.8 Vmaxpu=1.2 model=1 kW=3.43003 kvar=0.70007864149034 Phases=2

New Load.load_p1ulv5556 conn=wye bus1=p1ulv5556.1.2 kV=0.2080002494301389 Vminpu=0.8 Vmaxpu=1.2 model=1 kW=3.15003 kvar=0.6396408727569326 Phases=2

New Load.load_p1ulv5557 conn=wye bus1=p1ulv5557.1.2 kV=0.2080002494301389 Vminpu=0.8 Vmaxpu=1.2 model=1 kW=3.6900400000000007 kvar=0.7492945800859013 Phases=2

New Load.load_p1ulv5558 conn=wye bus1=p1ulv5558.1.2 kV=0.2080002494301389 Vminpu=0.8 Vmaxpu=1.2 model=1 kW=3.89004 kvar=0.789906312212702 Phases=2

New Load.load_p1ulv5559 conn=wye bus1=p1ulv5559.1.2 kV=0.2080002494301389 Vminpu=0.8 Vmaxpu=1.2 model=1 kW=4.26004 kvar=0.8605698013918458 Phases=2

New Load.load_p1ulv5560 conn=wye bus1=p1ulv5560.1.2 kV=0.2080002494301389 Vminpu=0.8 Vmaxpu=1.2 model=1 kW=3.93004 kvar=0.8000826809384517 Phases=2

New Load.load_p1ulv5561 conn=wye bus1=p1ulv5561.1.2 kV=0.2080002494301389 Vminpu=0.8 Vmaxpu=1.2 model=1 kW=3.79004 kvar=0.7696004461493017 Phases=2

New Load.load_p1ulv5562 conn=wye bus1=p1ulv5562.1.2 kV=0.2080002494301389 Vminpu=0.8 Vmaxpu=1.2 model=1 kW=3.9600400000000002 kvar=0.810315553811549 Phases=2

New Load.load_p1ulv5563 conn=wye bus1=p1ulv5563.1.2 kV=0.2080002494301389 Vminpu=0.8 Vmaxpu=1.2 model=1 kW=4.21004 kvar=0.8592808470538134 Phases=2

New Load.load_p1ulv5564 conn=wye bus1=p1ulv5564.1.2 kV=0.2080002494301389 Vminpu=0.8 Vmaxpu=1.2 model=1 kW=3.48003 kvar=0.71028378024263 Phases=2

New Load.load_p1ulv5565 conn=wye bus1=p1ulv5565.1.2 kV=0.2080002494301389 Vminpu=0.8 Vmaxpu=1.2 model=1 kW=3.0500300000000005 kvar=0.6193350066935321 Phases=2

New Load.load_p1ulv5566 conn=wye bus1=p1ulv5566.1.2 kV=0.2080002494301389 Vminpu=0.8 Vmaxpu=1.2 model=1 kW=3.27003 kvar=0.660578085568534 Phases=2

New Load.load_p1ulv5567 conn=wye bus1=p1ulv5567.1.2 kV=0.2080002494301389 Vminpu=0.8 Vmaxpu=1.2 model=1 kW=3.24003 kvar=0.6596095430888772 Phases=2

New Load.load_p1ulv5568 conn=wye bus1=p1ulv5568.1.2 kV=0.2080002494301389 Vminpu=0.8 Vmaxpu=1.2 model=1 kW=2.95003 kvar=0.6005709639720869 Phases=2

New Load.load_p1ulv5569 conn=wye bus1=p1ulv5569.1.2 kV=0.2080002494301389 Vminpu=0.8 Vmaxpu=1.2 model=1 kW=2.84003 kvar=0.5796580042133189 Phases=2

New Load.load_p1ulv5570 conn=wye bus1=p1ulv5570.1.2 kV=0.2080002494301389 Vminpu=0.8 Vmaxpu=1.2 model=1 kW=4.60005 kvar=0.9292551513348608 Phases=2

New Load.load_p1ulv5571 conn=wye bus1=p1ulv5570.1.2 kV=0.2080002494301389 Vminpu=0.8 Vmaxpu=1.2 model=1 kW=3.13003 kvar=0.6404763570309296 Phases=2

New Load.load_p1ulv5572 conn=wye bus1=p1ulv5572.1.2 kV=0.2080002494301389 Vminpu=0.8 Vmaxpu=1.2 model=1 kW=3.46003 kvar=0.7007765735124853 Phases=2

New Load.load_p1ulv5573 conn=wye bus1=p1ulv5573.1.2 kV=0.2080002494301389 Vminpu=0.8 Vmaxpu=1.2 model=1 kW=2.94003 kvar=0.6000682817178988 Phases=2

New Load.load_p1ulv5574 conn=wye bus1=p1ulv5574.1.2 kV=0.2080002494301389 Vminpu=0.8 Vmaxpu=1.2 model=1 kW=3.78004 kvar=0.7695454848435601 Phases=2

New Load.load_p1ulv5575 conn=wye bus1=p1ulv5575.1.2 kV=0.2080002494301389 Vminpu=0.8 Vmaxpu=1.2 model=1 kW=4.00004 kvar=0.8101474048239126 Phases=2

New Load.load_p1ulv5576 conn=wye bus1=p1ulv5576.1.2 kV=0.2080002494301389 Vminpu=0.8 Vmaxpu=1.2 model=1 kW=4.19004 kvar=0.8508239104029033 Phases=2

New Load.load_p1ulv5577 conn=wye bus1=p1ulv5577.1.2 kV=0.2080002494301389 Vminpu=0.8 Vmaxpu=1.2 model=1 kW=4.2400400000000005 kvar=0.8609768434346036 Phases=2

New Load.load_p1ulv5578 conn=wye bus1=p1ulv5578.1.2 kV=0.2080002494301389 Vminpu=0.8 Vmaxpu=1.2 model=1 kW=3.97004 kvar=0.8102961810428216 Phases=2

New Load.load_p1ulv5579 conn=wye bus1=p1ulv5579.1.2 kV=0.2080002494301389 Vminpu=0.8 Vmaxpu=1.2 model=1 kW=4.52005 kvar=0.9201976880580982 Phases=2

New Load.load_p1ulv5580 conn=wye bus1=p1ulv5580.1.2 kV=0.2080002494301389 Vminpu=0.8 Vmaxpu=1.2 model=1 kW=4.16004 kvar=0.8403688220256462 Phases=2

New Load.load_p1ulv5581 conn=wye bus1=p1ulv5581.1.2 kV=0.2080002494301389 Vminpu=0.8 Vmaxpu=1.2 model=1 kW=3.84004 kvar=0.7797533791810017 Phases=2

New Load.load_p1ulv5582 conn=wye bus1=p1ulv5582.1.2 kV=0.2080002494301389 Vminpu=0.8 Vmaxpu=1.2 model=1 kW=4.11004 kvar=0.8302683323425464 Phases=2

New Load.load_p1ulv5583 conn=wye bus1=p1ulv5583.1.2 kV=0.2080002494301389 Vminpu=0.8 Vmaxpu=1.2 model=1 kW=4.16004 kvar=0.8403688220256462 Phases=2

New Load.load_p1ulv5584 conn=wye bus1=p1ulv5584.1.2 kV=0.2080002494301389 Vminpu=0.8 Vmaxpu=1.2 model=1 kW=3.7300400000000002 kvar=0.7593664194785962 Phases=2

New Load.load_p1ulv5585 conn=wye bus1=p1ulv5585.1.2 kV=0.2080002494301389 Vminpu=0.8 Vmaxpu=1.2 model=1 kW=3.48003 kvar=0.71028378024263 Phases=2

New Load.load_p1ulv5586 conn=wye bus1=p1ulv5586.1.2 kV=0.2080002494301389 Vminpu=0.8 Vmaxpu=1.2 model=1 kW=3.91004 kvar=0.7898663736101474 Phases=2

New Load.load_p1ulv5587 conn=wye bus1=p1ulv5587.1.2 kV=0.2080002494301389 Vminpu=0.8 Vmaxpu=1.2 model=1 kW=4.15004 kvar=0.8405276287025704 Phases=2

New Load.load_p1ulv5588 conn=wye bus1=p1ulv5588.1.2 kV=0.2080002494301389 Vminpu=0.8 Vmaxpu=1.2 model=1 kW=3.57004 kvar=0.7193043493362031 Phases=2

New Load.load_p1ulv5589 conn=wye bus1=p1ulv5589.1.2 kV=0.2080002494301389 Vminpu=0.8 Vmaxpu=1.2 model=1 kW=3.89004 kvar=0.789906312212702 Phases=2

New Load.load_p1ulv5590 conn=wye bus1=p1ulv5590.1.2 kV=0.2080002494301389 Vminpu=0.8 Vmaxpu=1.2 model=1 kW=3.84004 kvar=0.7797533791810017 Phases=2

New Load.load_p1ulv5591 conn=wye bus1=p1ulv5591.1.2 kV=0.2080002494301389 Vminpu=0.8 Vmaxpu=1.2 model=1 kW=4.46004 kvar=0.910306540815263 Phases=2

...